/*--------------------------------*- C++ -*----------------------------------*\
| =========                 |                                                 |
| \\      /  F ield         | OpenFOAM: The Open Source CFD Toolbox           |
|  \\    /   O peration     | Version:  4.x                                   |
|   \\  /    A nd           | Web:      www.OpenFOAM.org                      |
|    \\/     M anipulation  |                                                 |
\*---------------------------------------------------------------------------*/
FoamFile
{
    version     2.0;
    format      ascii;
    class       polyTopoChanger;
    location    "1e-06/polyMesh";
    object      meshModifiers;
}
// * * * * * * * * * * * * * * * * * * * * * * * * * * * * * * * * * * * * * //

1
(
couple
{
    type slidingInterface;
    masterFaceZoneName contactwall-surface_bodyMasterZone;
    slaveFaceZoneName contactwall-surface_bodySlaveZone;
    cutPointZoneName contactwall-surface_bodyCutPointZone;
    cutFaceZoneName contactwall-surface_bodyCutFaceZone;
    masterPatchName contact;
    slavePatchName wall-surface_body;
    typeOfMatch integral;
    coupleDecouple true;
    projection visible;
    attached true;
    active true;
masterFaceCells List<label> 
150
(
2271
2272
2273
2274
2275
2276
2277
2278
2279
2280
2281
2282
2283
2284
2285
2286
2287
2288
2289
2290
2291
2292
2293
2294
2295
2296
2297
2298
2299
2300
2301
2302
2303
2304
2305
2306
2307
2308
2309
2310
2311
2312
2313
2314
2315
2316
2317
2318
2319
2320
2321
2322
2323
2324
2325
2326
2327
2328
2329
2330
2331
2332
2333
2334
2335
2336
2337
2338
2339
2340
2341
2342
2343
2344
2345
2346
2347
2348
2349
2350
2351
2352
2353
2354
2355
2356
2357
2358
2359
2360
2361
2362
2363
2364
2365
2366
2367
2368
2369
2370
2371
2372
2373
2374
2375
2376
2377
2378
2379
2380
2381
2382
2383
2384
2385
2386
2387
2388
2389
2390
2391
2392
2393
2394
2395
2396
2397
2398
2399
2400
2401
2402
2403
2404
2405
2406
2407
2408
2409
2410
2411
2412
2413
2414
2415
2416
2417
2418
2419
2420
)
;
slaveFaceCells  List<label> 
149
(
2431
2791
3151
3511
3871
4231
4591
4951
5311
5671
6031
6391
6751
7111
7471
7831
8191
8551
8911
9271
9631
9991
10351
10711
11071
11431
11791
12151
12511
12871
13231
13591
13951
14311
14671
15031
15391
15751
16111
16471
16831
17191
17551
17911
18271
18631
18991
19351
19711
20071
20431
20791
21151
21511
21871
22231
22591
22951
23311
23671
24031
24391
24751
25111
25471
25831
26191
26551
26911
27271
27631
27991
28351
28711
29071
29431
29791
30151
30511
30871
31231
31591
31951
32311
32671
33031
33391
33751
34111
34471
34831
35191
35551
35911
36271
36631
36991
37351
37711
38071
38431
38791
39151
39511
39871
40231
40591
40951
41311
41671
42031
42391
42751
43111
43471
43831
44191
44551
44911
45271
45631
45991
46351
46711
47071
47431
47791
48151
48511
48871
49231
49591
49951
50311
50671
51031
51391
51751
52111
52471
52831
53191
53551
53911
54271
54631
54991
55351
55711
)
;
masterStickOutFaces List<label> 
451
(
4558
4559
4560
4561
4562
4563
4564
4565
4566
4567
4568
4569
4570
4571
4572
4573
4574
4575
4576
4577
4578
4579
4580
4581
4582
4583
4584
4585
4586
4587
4588
4589
4590
4591
4592
4593
4594
4595
4596
4597
4598
4599
4600
4601
4602
4603
4604
4605
4606
4607
4608
4609
4610
4611
4612
4613
4614
4615
4616
4617
4618
4619
4620
4621
4622
4623
4624
4625
4626
4627
4628
4629
4630
4631
4632
4633
4634
4635
4636
4637
4638
4639
4640
4641
4642
4643
4644
4645
4646
4647
4648
4649
4650
4651
4652
4653
4654
4655
4656
4657
4658
4659
4660
4661
4662
4663
4664
4665
4666
4667
4668
4669
4670
4671
4672
4673
4674
4675
4676
4677
4678
4679
4680
4681
4682
4683
4684
4685
4686
4687
4688
4689
4690
4691
4692
4693
4694
4695
4696
4697
4698
4699
4700
4701
4702
4703
4704
4705
4706
117407
117408
117409
117410
117411
117412
117413
117414
117415
117416
117417
117418
117419
117420
117421
117422
117423
117424
117425
117426
117427
117428
117429
117430
117431
117432
117433
117434
117435
117436
117437
117438
117439
117440
117441
117442
117443
117444
117445
117446
117447
117448
117449
117450
117451
117452
117453
117454
117455
117456
117457
117458
117459
117460
117461
117462
117463
117464
117465
117466
117467
117468
117469
117470
117471
117472
117473
117474
117475
117476
117477
117478
117479
117480
117481
117482
117483
117484
117485
117486
117487
117488
117489
117490
117491
117492
117493
117494
117495
117496
117497
117498
117499
117500
117501
117502
117503
117504
117505
117506
117507
117508
117509
117510
117511
117512
117513
117514
117515
117516
117517
117518
117519
117520
117521
117522
117523
117524
117525
117526
117527
117528
117529
117530
117531
117532
117533
117534
117535
117536
117537
117538
117539
117540
117541
117542
117543
117544
117545
117546
117547
117548
117549
117550
117551
117552
117553
117554
117555
117556
117557
117558
117559
117560
117561
117562
117563
117564
117565
117566
117567
117568
117569
117570
117571
117572
117573
117574
117575
117576
117577
117578
117579
117580
117581
117582
117583
117584
117585
117586
117587
117588
117589
117590
117591
117592
117593
117594
117595
117596
117597
117598
117599
117600
117601
117602
117603
117604
117605
117606
117607
117608
117609
117610
117611
117612
117613
117614
117615
117616
117617
117618
117619
117620
117621
117622
117623
117624
117625
117626
117627
117628
117629
117630
117631
117632
117633
117634
117635
117636
117637
117638
117639
117640
117641
117642
117643
117644
117645
117646
117647
117648
117649
117650
117651
117652
117653
117654
117655
117656
117657
117658
117659
117660
117661
117662
117663
117664
117665
117666
117667
117668
117669
117670
117671
117672
117673
117674
117675
117676
117677
117678
117679
117680
117681
117682
117683
117684
117685
117686
117687
117688
117689
117690
117691
117692
117693
117694
117695
117696
117697
117698
117699
117700
117701
117702
117703
117704
117705
117706
111576
111577
)
;
slaveStickOutFaces List<label> 
448
(
217088
171008
124928
6156
39949
73742
107535
197647
151567
197648
151568
224287
178207
132127
224288
178208
132128
13346
47139
80932
204847
158767
204848
158768
20536
54329
88122
185407
139327
185408
139328
27726
212047
61519
165967
119887
212048
95312
165968
119888
192607
146527
192608
146528
34916
68709
102502
219247
173167
127087
219248
173168
127088
8313
42106
75899
109692
199807
153727
199808
153728
180367
134287
15503
180368
49296
134288
83089
207007
160927
207008
160928
22693
56486
90279
187567
141487
187568
141488
29883
63676
97469
214207
168127
122047
214208
168128
122048
194767
148687
194768
148688
37073
70866
104659
221407
175327
129247
221408
175328
129248
10470
44263
78056
201967
155887
201968
155888
17660
51453
85246
182527
136447
182528
136448
209167
163087
209168
163088
24850
58643
92436
189727
143647
189728
143648
32040
65833
99626
216367
170287
124207
216368
170288
124208
5437
39230
196927
73023
150847
106816
196928
150848
111938
223567
177487
131407
223568
177488
131408
12627
46420
80213
204127
158047
204128
158048
19817
53610
87403
184687
138607
184688
138608
211327
165247
27007
119167
211328
60800
165248
119168
94593
191887
145807
191888
145808
34197
67990
101783
218527
172447
126367
218528
172448
126368
7594
41387
75180
108973
199087
153007
199088
153008
179647
133567
179648
133568
14784
48577
82370
206287
160207
206288
160208
21974
55767
89560
186847
140767
186848
140768
29164
62957
96750
213487
167407
121327
213488
167408
121328
194047
147967
194048
147968
36354
70147
103940
220687
174607
128527
220688
174608
128528
9751
43544
77337
201247
155167
201248
155168
16941
50734
84527
181807
135727
181808
135728
208447
162367
208448
162368
24131
57924
91717
189007
142927
189008
142928
31321
65114
98907
215647
169567
123487
215648
169568
123488
4718
196207
38511
150127
196208
72304
150128
106097
222847
176767
130687
222848
176768
130688
11908
45701
79494
203407
157327
203408
157328
19098
52891
86684
183967
137887
183968
137888
210607
164527
118447
210608
164528
26288
118448
60081
93874
191167
145087
191168
145088
33478
67271
101064
217807
171727
125647
217808
171728
125648
6875
40668
74461
108254
198367
152287
198368
152288
178927
132847
178928
132848
14065
47858
81651
205567
159487
205568
159488
21255
55048
88841
186127
140047
186128
140048
28445
62238
212767
96031
166687
120607
212768
166688
120608
193327
147247
193328
147248
35635
69428
103221
219967
173887
127807
219968
173888
127808
9032
42825
76618
110411
200527
154447
200528
154448
16222
181087
50015
135007
83808
181088
135008
207727
161647
207728
161648
23412
57205
90998
188287
142207
188288
142208
30602
64395
98188
214927
168847
122767
214928
168848
122768
195487
149407
195488
37792
149408
71585
105378
222127
176047
129967
222128
176048
129968
11189
44982
78775
202687
156607
202688
156608
18379
52172
85965
183247
137167
183248
137168
111578
209887
163807
117727
209888
163808
117728
25569
59362
93155
190447
144367
190448
144368
32759
66552
100345
217087
171007
124927
)
;
    retiredPointMap 
300
(
113664 56710
113665 113483
113666 56708
113667 113481
113668 56707
113669 113480
113670 56706
113671 113479
113672 56705
113673 113478
113674 56704
113675 113477
113676 56703
113677 113476
113678 56702
113679 113475
113680 56700
113681 113473
113682 56699
113683 113472
113684 56698
113685 113471
113686 56697
113687 113470
113688 56695
113689 113468
113690 56694
113691 113467
113692 56693
113693 113466
113694 56691
113695 113464
113696 56690
113697 113463
113698 56689
113699 113462
113700 56687
113701 113460
113702 56686
113703 113459
113704 56685
113705 113458
113706 56684
113707 113457
113708 56683
113709 113456
113710 56682
113711 113455
113712 56680
113713 113453
113714 56679
113715 113452
113716 56678
113717 113451
113718 56677
113719 113450
113720 56676
113721 113449
113722 56675
113723 113448
113724 56674
113725 113447
113726 56673
113727 113446
113728 56672
113729 113445
113730 56671
113731 113444
113732 56670
113733 113443
113734 56668
113735 113441
113736 56667
113737 113440
113738 56666
113739 113439
113740 56665
113741 113438
113742 56664
113743 113437
113744 56663
113745 113436
113746 56662
113747 113435
113748 56661
113749 113434
113750 56660
113751 113433
113752 56659
113753 113432
113754 56658
113755 113431
113756 56656
113757 113429
113758 56655
113759 113428
113760 56654
113761 113427
113762 56653
113763 113426
113764 56652
113765 113425
113766 56651
113767 113424
113768 56650
113769 113423
113770 56649
113771 113422
113772 56648
113773 113421
113774 56647
113775 113420
113776 56646
113777 113419
113778 56645
113779 113418
113780 56644
55412 55756
113781 113417
113782 56643
113783 113416
113784 56642
113785 113415
113786 56641
113787 113414
113788 56640
113789 113413
113790 56639
113791 113412
113792 56638
113793 113411
113794 56637
113795 113410
113796 56636
113797 113409
113798 56635
113799 113408
113800 56634
113801 113407
113802 56633
113803 113406
113804 56632
113805 113405
113806 56631
113807 113404
113808 56630
113809 113403
55442 55757
113810 56629
113811 113402
113812 56628
113813 113401
113814 56627
113815 113400
113816 56626
113817 113399
113818 56625
113819 113398
55465 56657
55480 56669
55495 56681
55504 56688
55509 56692
55514 56696
55520 56701
55530 56709
55539 56716
55554 56728
55569 56740
112185 112529
112215 112530
112238 113430
112253 113442
112268 113454
112277 113461
112282 113465
112287 113469
112293 113474
112303 113482
112312 113489
112327 113501
112342 113513
113546 56772
113547 113545
113548 56771
113549 113544
113550 56770
113551 113543
113552 56769
113553 113542
113554 56768
113555 113541
113556 56767
113557 113540
113558 56766
113559 113539
113560 56765
113561 113538
113562 56764
113563 113537
113564 56763
113565 113536
113566 56762
113567 113535
113568 56761
113569 113534
113570 56760
113571 113533
113572 56759
113573 113532
113574 56758
113575 113531
113576 56757
113577 113530
113578 56756
113579 113529
113580 56755
113581 113528
113582 56754
113583 113527
113584 56753
113585 113526
113586 56752
113587 113525
113588 56751
113589 113524
113590 56750
113591 113523
113592 56749
113593 113522
113594 56748
113595 113521
113596 56747
113597 113520
113598 56746
113599 113519
113600 56745
113601 113518
113602 56744
113603 113517
113604 56743
113605 113516
113606 56742
113607 113515
113608 56741
113609 113514
113610 56739
113611 113512
113612 56738
113613 113511
113614 56737
113615 113510
113616 56736
113617 113509
113618 56735
113619 113508
113620 56734
113621 113507
113622 56733
113623 113506
113624 56732
113625 113505
113626 56731
113627 113504
113628 56730
113629 113503
113630 56729
113631 113502
113632 56727
113633 113500
113634 56726
113635 113499
113636 56725
113637 113498
113638 56724
113639 113497
113640 56723
113641 113496
113642 56722
113643 113495
113644 56721
113645 113494
113646 56720
113647 113493
113648 56719
113649 113492
113650 56718
113651 113491
113652 56717
113653 113490
113654 56715
113655 113488
113656 56714
113657 113487
113658 56713
113659 113486
113660 56712
113661 113485
113662 56711
113663 113484
);
    cutPointEdgePairMap 
0
(
);
}
)

// ************************************************************************* //
