/*--------------------------------*- C++ -*----------------------------------*\
| =========                 |                                                 |
| \\      /  F ield         | OpenFOAM: The Open Source CFD Toolbox           |
|  \\    /   O peration     | Version:  1.6                                   |
|   \\  /    A nd           | Web:      http://www.OpenFOAM.org               |
|    \\/     M anipulation  |                                                 |
\*---------------------------------------------------------------------------*/
FoamFile
{
    version     2.0;
    format      ascii;
    class       dictionary;
    object      blockMeshDict;
}
// * * * * * * * * * * * * * * * * * * * * * * * * * * * * * * * * * * * * * //

convertToMeters 1e-6;

vertices
(
    (0 0 0)
    (300 0 0)
    (300 300 0)
    (0 300 0)
    (0 0 125)
    (300 0 125)
    (300 300 125)
    (0 300 125)
);

blocks
(
    hex (0 1 2 3 4 5 6 7) (60 60 25) simpleGrading (1 1 1)
);

edges
(
);

boundary
(
	Walls
    {
        type patch;
        faces
        (
            (1 2 6 5)
            (0 3 7 4)
            (0 1 5 4)
            (3 2 6 7)
        );
    }

	bottom
    {
        type patch;
        faces
        (
            (0 1 2 3)
        );
    }

	top
    {
        type patch;
        faces
        (
            (4 5 6 7)
        );
    }

);

mergePatchPairs
(
);

// ************************************************************************* //
