/*---------------------------------------------------------------------------*\
| =========                 |                                                 |
| \\      /  F ield         | OpenFOAM: The Open Source CFD Toolbox           |
|  \\    /   O peration     | Version:  1.4                                   |
|   \\  /    A nd           | Web:      http://www.openfoam.org               |
|    \\/     M anipulation  |                                                 |
\*---------------------------------------------------------------------------*/
FoamFile
{
    version     2.0;
    format      ascii;
    class       dictionary;
    location    "constant";
    object      transportProperties;
}
// * * * * * * * * * * * * * * * * * * * * * * * * * * * * * * * * * * * * * //
phases (water vapor air);

water
{
    transportModel  Newtonian;
    nu              nu [0 2 -1 0 0 0 0]  1e-6;
    rho             rho [1 -3 0 0 0 0 0] 1000;
    lambda			lambda [1 1 -3 -1 0 0 0] 1.0;
    cp				cp [ 0 2 -2 -1 0 0 0] 4219;
}

vapor
{
    transportModel  Newtonian;
    nu              nu [0 2 -1 0 0 0 0] 1.61e-05;
    rho             rho [1 -3 0 0 0 0 0] 0.85;
    lambda			lambda [1 1 -3 -1 0 0 0] 0.0246;
    cp				cp [ 0 2 -2 -1 0 0 0] 2060;
}

air
{
    transportModel  Newtonian;
    nu              nu [0 2 -1 0 0 0 0]  1.48e-5;
    rho             rho [1 -3 0 0 0 0 0] 1;
    lambda			lambda [1 1 -3 -1 0 0 0] 0.0256;
    cp				cp [ 0 2 -2 -1 0 0 0] 1007;
}

// Surface tension coefficients
sigma12           sigma13 [1 0 -2 0 0 0 0] 0.05891;
sigma13           sigma23 [1 0 -2 0 0 0 0] 0.05;
sigma           sigma [ 1 0 -2 0 0 0 0 ] 0.05891;

deltaX		deltaX [ 0 0 0 0 0 0 0 ] 5.0e-6; //0.006667;
deltaTau	deltaTau [ 0 0 0 0 0 0 0 ] 5.0e-6; //0.006667;
epsilon     epsilon [ 0 0 0 0 0 0 0 ] 7.5e-6; //1.5*deltaX;

ImprovedTransportBlending no;

surfaceTensionForce
{
	model               SmoothedSF;
}

// Diffusivity between miscible phases
D23               D23   [0 2 -1 0 0 0 0]  3e-07; //previously 3e-09;
mvap             18.02e-3;
Mv               18.02e-3;
Mg               28.97e-3;
Pc               Pc   [1 -1 -2 0 0 0 0] 220.64e5;
Tc               Tc   [0 0 0 1 0 0 0] 647.096;
TB               TB   [0 0 0 1 0 0 0] 373.15;
R               R   [0 2 -2 -1 0 0 0]  8.3145;
p_atm_            p_atm_  [1 -1 -2 0 0 0 0] 1.01325e5;
a               -7.861942;
b                1.879246;
c                -2.266807;
d                -2.128615;
hvap            hvap   [0 2 -2 0 0 0 0] 2260e3;
// ************************************************************************* //
